Version 4
SHEET 1 2344 2032
WIRE -3520 464 -3584 464
WIRE -3360 464 -3440 464
WIRE -3456 560 -3488 560
WIRE -3488 608 -3488 560
WIRE -3584 624 -3584 464
WIRE -3520 624 -3584 624
WIRE -3360 640 -3360 464
WIRE -3360 640 -3456 640
WIRE -3296 640 -3360 640
WIRE -4432 656 -4592 656
WIRE -4304 656 -4432 656
WIRE -4224 656 -4304 656
WIRE -4128 656 -4160 656
WIRE -4000 656 -4048 656
WIRE -3888 656 -4000 656
WIRE -3776 656 -3888 656
WIRE -3696 656 -3776 656
WIRE -3520 656 -3696 656
WIRE -3072 688 -3136 688
WIRE -3584 704 -3584 624
WIRE -3488 704 -3488 672
WIRE -4432 720 -4432 656
WIRE -4304 720 -4304 656
WIRE -3888 720 -3888 656
WIRE -3776 720 -3776 656
WIRE -3696 720 -3696 656
WIRE -3072 720 -3072 688
WIRE -4000 736 -4000 656
WIRE -3072 832 -3072 800
WIRE -4592 864 -4592 800
WIRE -4432 864 -4432 800
WIRE -4304 864 -4304 800
WIRE -4000 864 -4000 800
WIRE -3888 864 -3888 800
WIRE -3776 864 -3776 784
WIRE -3696 864 -3696 784
WIRE -3584 864 -3584 784
FLAG -3072 832 0
FLAG -3136 688 3V3
FLAG -4432 864 0
FLAG -3584 864 0
FLAG -3888 864 0
FLAG -4000 864 0
FLAG -4304 864 0
FLAG -3488 704 0
FLAG -3456 560 3V3
FLAG -3776 864 0
FLAG -4592 864 0
FLAG -3696 864 0
FLAG -4592 656 IN
FLAG -3296 640 OUT
SYMBOL VOLTAGE -3072 704 R0
WINDOW 123 0 0 Left 2
WINDOW 39 0 0 Left 2
SYMATTR InstName V1
SYMATTR Value 3V3
SYMBOL voltage -4432 704 R0
WINDOW 123 0 0 Left 2
WINDOW 39 0 0 Left 2
SYMATTR InstName V4
SYMATTR Value SINE(0 .02 1K)
SYMBOL res -3600 688 R0
SYMATTR InstName R7
SYMATTR Value 10K
SYMBOL res -3904 704 R0
SYMATTR InstName R10
SYMATTR Value 100K
SYMBOL res -4032 640 R90
WINDOW 0 0 56 VBottom 2
WINDOW 3 32 56 VTop 2
SYMATTR InstName R11
SYMATTR Value 1K
SYMBOL cap -4016 736 R0
SYMATTR InstName C3
SYMATTR Value 1n
SYMBOL cap -4160 640 R90
WINDOW 0 0 32 VBottom 2
WINDOW 3 32 32 VTop 2
SYMATTR InstName C4
SYMATTR Value 1µ
SYMBOL res -4320 704 R0
SYMATTR InstName R12
SYMATTR Value 10K
SYMBOL Opamps\\UniversalOpamp2 -3488 640 R0
SYMATTR InstName U2
SYMBOL res -3424 448 R90
WINDOW 0 0 56 VBottom 2
WINDOW 3 32 56 VTop 2
SYMATTR InstName R8
SYMATTR Value 47K
SYMBOL schottky -3760 784 R180
WINDOW 0 24 64 Left 2
WINDOW 3 -48 -5 Left 2
SYMATTR InstName D4
SYMATTR Value 1N5817
SYMATTR Description Diode
SYMATTR Type diode
SYMBOL voltage -4592 704 R0
WINDOW 123 24 124 Left 2
WINDOW 39 0 0 Left 2
SYMATTR Value2 AC 1
SYMATTR InstName V2
SYMATTR Value ""
SYMBOL diode -3712 720 R0
SYMATTR InstName D1
SYMATTR Value 1N4148
TEXT -2872 784 Left 2 !.tran 0 1260m 1250m
TEXT -2872 744 Left 2 !;ac dec 20 1 100k
TEXT -2872 704 Left 2 !.op
